data_image0
_chemical_formula_structural       O24C36N8C24H72
_chemical_formula_sum              "O24 C60 N8 H72"
_cell_length_a       11.2525
_cell_length_b       7.095
_cell_length_c       18.612
_cell_angle_alpha    90
_cell_angle_beta     90
_cell_angle_gamma    90

_space_group_name_H-M_alt    "P 1"
_space_group_IT_number       1

loop_
  _space_group_symop_operation_xyz
  'x, y, z'

loop_
  _atom_site_type_symbol
  _atom_site_label
  _atom_site_symmetry_multiplicity
  _atom_site_fract_x
  _atom_site_fract_y
  _atom_site_fract_z
  _atom_site_occupancy
  O   O1        1.0  0.36766  0.25000  0.04558  1.0000
  O   O2        1.0  0.13234  0.75000  0.54558  1.0000
  O   O3        1.0  0.63234  0.75000  0.95442  1.0000
  O   O4        1.0  0.86766  0.25000  0.45442  1.0000
  O   O5        1.0  0.30680  0.25000  0.15685  1.0000
  O   O6        1.0  0.19320  0.75000  0.65685  1.0000
  O   O7        1.0  0.69320  0.75000  0.84315  1.0000
  O   O8        1.0  0.80680  0.25000  0.34315  1.0000
  O   O9        1.0  0.06421  0.25000  0.85378  1.0000
  O   O10       1.0  0.43579  0.75000  0.35378  1.0000
  O   O11       1.0  0.93579  0.75000  0.14622  1.0000
  O   O12       1.0  0.56421  0.25000  0.64622  1.0000
  O   O13       1.0  0.87014  0.25000  0.87840  1.0000
  O   O14       1.0  0.62986  0.75000  0.37840  1.0000
  O   O15       1.0  0.12986  0.75000  0.12160  1.0000
  O   O16       1.0  0.37014  0.25000  0.62160  1.0000
  O   O17       1.0  0.90260  0.25000  0.22150  1.0000
  O   O18       1.0  0.59740  0.75000  0.72150  1.0000
  O   O19       1.0  0.09740  0.75000  0.77850  1.0000
  O   O20       1.0  0.40260  0.25000  0.27850  1.0000
  O   O21       1.0  0.75280  0.25000  0.14437  1.0000
  O   O22       1.0  0.74720  0.75000  0.64437  1.0000
  O   O23       1.0  0.24720  0.75000  0.85563  1.0000
  O   O24       1.0  0.25280  0.25000  0.35563  1.0000
  C   C1        1.0  0.15910  0.25000  0.06806  1.0000
  C   C2        1.0  0.34090  0.75000  0.56806  1.0000
  C   C3        1.0  0.84090  0.75000  0.93194  1.0000
  C   C4        1.0  0.65910  0.25000  0.43194  1.0000
  C   C5        1.0  0.12660  0.25000  0.99608  1.0000
  C   C6        1.0  0.37340  0.75000  0.49608  1.0000
  C   C7        1.0  0.87340  0.75000  0.00392  1.0000
  C   C8        1.0  0.62660  0.25000  0.50392  1.0000
  C   C9        1.0  0.00800  0.25000  0.97569  1.0000
  C   C10       1.0  0.49200  0.75000  0.47569  1.0000
  C   C11       1.0  0.99200  0.75000  0.02431  1.0000
  C   C12       1.0  0.50800  0.25000  0.52431  1.0000
  C   C13       1.0  0.91990  0.25000  0.02778  1.0000
  C   C14       1.0  0.58010  0.75000  0.52778  1.0000
  C   C15       1.0  0.08010  0.75000  0.97222  1.0000
  C   C16       1.0  0.41990  0.25000  0.47222  1.0000
  C   C17       1.0  0.95120  0.25000  0.09995  1.0000
  C   C18       1.0  0.54880  0.75000  0.59995  1.0000
  C   C19       1.0  0.04880  0.75000  0.90005  1.0000
  C   C20       1.0  0.45120  0.25000  0.40005  1.0000
  C   C21       1.0  0.07090  0.25000  0.11970  1.0000
  C   C22       1.0  0.42910  0.75000  0.61970  1.0000
  C   C23       1.0  0.92910  0.75000  0.88030  1.0000
  C   C24       1.0  0.57090  0.25000  0.38030  1.0000
  C   C25       1.0  0.28740  0.25000  0.09149  1.0000
  C   C26       1.0  0.21260  0.75000  0.59149  1.0000
  C   C27       1.0  0.71260  0.75000  0.90851  1.0000
  C   C28       1.0  0.78740  0.25000  0.40851  1.0000
  C   C29       1.0  0.97270  0.25000  0.89799  1.0000
  C   C30       1.0  0.52730  0.75000  0.39799  1.0000
  C   C31       1.0  0.02730  0.75000  0.10201  1.0000
  C   C32       1.0  0.47270  0.25000  0.60201  1.0000
  C   C33       1.0  0.85690  0.25000  0.15625  1.0000
  C   C34       1.0  0.64310  0.75000  0.65625  1.0000
  C   C35       1.0  0.14310  0.75000  0.84375  1.0000
  C   C36       1.0  0.35690  0.25000  0.34375  1.0000
  N   N1        1.0  0.95340  0.25000  0.58655  1.0000
  N   N2        1.0  0.54660  0.75000  0.08655  1.0000
  N   N3        1.0  0.04660  0.75000  0.41345  1.0000
  N   N4        1.0  0.45340  0.25000  0.91345  1.0000
  N   N5        1.0  0.00180  0.25000  0.71781  1.0000
  N   N6        1.0  0.49820  0.75000  0.21781  1.0000
  N   N7        1.0  0.99820  0.75000  0.28219  1.0000
  N   N8        1.0  0.50180  0.25000  0.78219  1.0000
  C   C37       1.0  0.08560  0.25000  0.59512  1.0000
  C   C38       1.0  0.41440  0.75000  0.09512  1.0000
  C   C39       1.0  0.91440  0.75000  0.40488  1.0000
  C   C40       1.0  0.58560  0.25000  0.90488  1.0000
  C   C41       1.0  0.90300  0.07750  0.62005  1.0000
  C   C42       1.0  0.59700  0.57750  0.12005  1.0000
  C   C43       1.0  0.90300  0.42250  0.62005  1.0000
  C   C44       1.0  0.59700  0.92250  0.12005  1.0000
  C   C45       1.0  0.09700  0.92250  0.37995  1.0000
  C   C46       1.0  0.40300  0.42250  0.87995  1.0000
  C   C47       1.0  0.09700  0.57750  0.37995  1.0000
  C   C48       1.0  0.40300  0.07750  0.87995  1.0000
  C   C49       1.0  0.11240  0.25000  0.67557  1.0000
  C   C50       1.0  0.38760  0.75000  0.17557  1.0000
  C   C51       1.0  0.88760  0.75000  0.32443  1.0000
  C   C52       1.0  0.61240  0.25000  0.82443  1.0000
  C   C53       1.0  0.93170  0.08180  0.69968  1.0000
  C   C54       1.0  0.56830  0.58180  0.19968  1.0000
  C   C55       1.0  0.93170  0.41820  0.69968  1.0000
  C   C56       1.0  0.56830  0.91820  0.19968  1.0000
  C   C57       1.0  0.06830  0.91820  0.30032  1.0000
  C   C58       1.0  0.43170  0.41820  0.80032  1.0000
  C   C59       1.0  0.06830  0.58180  0.30032  1.0000
  C   C60       1.0  0.43170  0.08180  0.80032  1.0000
  H   H1        1.0  0.04030  0.25000  0.81216  1.0000
  H   H2        1.0  0.45970  0.75000  0.31216  1.0000
  H   H3        1.0  0.95970  0.75000  0.18784  1.0000
  H   H4        1.0  0.54030  0.25000  0.68784  1.0000
  H   H5        1.0  0.84880  0.25000  0.25123  1.0000
  H   H6        1.0  0.65120  0.75000  0.75123  1.0000
  H   H7        1.0  0.15120  0.75000  0.74877  1.0000
  H   H8        1.0  0.34880  0.25000  0.24877  1.0000
  H   H9        1.0  0.18540  0.25000  0.96093  1.0000
  H   H10       1.0  0.31460  0.75000  0.46093  1.0000
  H   H11       1.0  0.81460  0.75000  0.03907  1.0000
  H   H12       1.0  0.68540  0.25000  0.53907  1.0000
  H   H13       1.0  0.84020  0.25000  0.01445  1.0000
  H   H14       1.0  0.65980  0.75000  0.51445  1.0000
  H   H15       1.0  0.15980  0.75000  0.98555  1.0000
  H   H16       1.0  0.34020  0.25000  0.48555  1.0000
  H   H17       1.0  0.09140  0.25000  0.16809  1.0000
  H   H18       1.0  0.40860  0.75000  0.66809  1.0000
  H   H19       1.0  0.90860  0.75000  0.83191  1.0000
  H   H20       1.0  0.59140  0.25000  0.33191  1.0000
  H   H21       1.0  0.93550  0.25000  0.53888  1.0000
  H   H22       1.0  0.56450  0.75000  0.03888  1.0000
  H   H23       1.0  0.06450  0.75000  0.46112  1.0000
  H   H24       1.0  0.43550  0.25000  0.96112  1.0000
  H   H25       1.0  0.11950  0.36090  0.57262  1.0000
  H   H26       1.0  0.38050  0.86090  0.07262  1.0000
  H   H27       1.0  0.11950  0.13910  0.57262  1.0000
  H   H28       1.0  0.38050  0.63910  0.07262  1.0000
  H   H29       1.0  0.88050  0.63910  0.42738  1.0000
  H   H30       1.0  0.61950  0.13910  0.92738  1.0000
  H   H31       1.0  0.88050  0.86090  0.42738  1.0000
  H   H32       1.0  0.61950  0.36090  0.92738  1.0000
  H   H33       1.0  0.93730  0.96600  0.59812  1.0000
  H   H34       1.0  0.56270  0.46600  0.09812  1.0000
  H   H35       1.0  0.93730  0.53400  0.59812  1.0000
  H   H36       1.0  0.56270  0.03400  0.09812  1.0000
  H   H37       1.0  0.06270  0.03400  0.40188  1.0000
  H   H38       1.0  0.43730  0.53400  0.90188  1.0000
  H   H39       1.0  0.06270  0.46600  0.40188  1.0000
  H   H40       1.0  0.43730  0.96600  0.90188  1.0000
  H   H41       1.0  0.81760  0.07390  0.61301  1.0000
  H   H42       1.0  0.68240  0.57390  0.11301  1.0000
  H   H43       1.0  0.81760  0.42610  0.61301  1.0000
  H   H44       1.0  0.68240  0.92610  0.11301  1.0000
  H   H45       1.0  0.18240  0.92610  0.38699  1.0000
  H   H46       1.0  0.31760  0.42610  0.88699  1.0000
  H   H47       1.0  0.18240  0.57390  0.38699  1.0000
  H   H48       1.0  0.31760  0.07390  0.88699  1.0000
  H   H49       1.0  0.15900  0.13940  0.68760  1.0000
  H   H50       1.0  0.34100  0.63940  0.18760  1.0000
  H   H51       1.0  0.15900  0.36060  0.68760  1.0000
  H   H52       1.0  0.34100  0.86060  0.18760  1.0000
  H   H53       1.0  0.84100  0.86060  0.31240  1.0000
  H   H54       1.0  0.65900  0.36060  0.81240  1.0000
  H   H55       1.0  0.84100  0.63940  0.31240  1.0000
  H   H56       1.0  0.65900  0.13940  0.81240  1.0000
  H   H57       1.0  0.85840  0.08220  0.72711  1.0000
  H   H58       1.0  0.64160  0.58220  0.22711  1.0000
  H   H59       1.0  0.85840  0.41780  0.72711  1.0000
  H   H60       1.0  0.64160  0.91780  0.22711  1.0000
  H   H61       1.0  0.14160  0.91780  0.27289  1.0000
  H   H62       1.0  0.35840  0.41780  0.77289  1.0000
  H   H63       1.0  0.14160  0.58220  0.27289  1.0000
  H   H64       1.0  0.35840  0.08220  0.77289  1.0000
  H   H65       1.0  0.97610  0.96960  0.71252  1.0000
  H   H66       1.0  0.52390  0.46960  0.21252  1.0000
  H   H67       1.0  0.97610  0.53040  0.71252  1.0000
  H   H68       1.0  0.52390  0.03040  0.21252  1.0000
  H   H69       1.0  0.02390  0.03040  0.28748  1.0000
  H   H70       1.0  0.47610  0.53040  0.78748  1.0000
  H   H71       1.0  0.02390  0.46960  0.28748  1.0000
  H   H72       1.0  0.47610  0.96960  0.78748  1.0000
