data_image0
_chemical_formula_structural       N2C4N2C6O4C2O4C6N2C6O4C2O4H30
_chemical_formula_sum              "N6 C26 O16 H30"
_cell_length_a       7.892
_cell_length_b       9.49
_cell_length_c       10.115
_cell_angle_alpha    91.83
_cell_angle_beta     91.46
_cell_angle_gamma    100.35

_space_group_name_H-M_alt    "P 1"
_space_group_IT_number       1

loop_
  _space_group_symop_operation_xyz
  'x, y, z'

loop_
  _atom_site_type_symbol
  _atom_site_label
  _atom_site_symmetry_multiplicity
  _atom_site_fract_x
  _atom_site_fract_y
  _atom_site_fract_z
  _atom_site_occupancy
  N   N1        1.0  0.83670  0.29510  0.10530  1.0000
  N   N2        1.0  0.16330  0.70490  0.89470  1.0000
  C   C1        1.0  0.70990  0.36850  0.13000  1.0000
  C   C2        1.0  0.29010  0.63150  0.87000  1.0000
  C   C3        1.0  0.74970  0.51200  0.17620  1.0000
  C   C4        1.0  0.25030  0.48800  0.82380  1.0000
  N   N3        1.0  0.91500  0.57610  0.19810  1.0000
  N   N4        1.0  0.08500  0.42390  0.80190  1.0000
  C   C5        1.0  0.03720  0.50040  0.17440  1.0000
  C   C6        1.0  0.96280  0.49960  0.82560  1.0000
  C   C7        1.0  0.99850  0.36000  0.12680  1.0000
  C   C8        1.0  0.00150  0.64000  0.87320  1.0000
  C   C9        1.0  0.53210  0.27580  0.10080  1.0000
  C   C10       1.0  0.46790  0.72420  0.89920  1.0000
  O   O1        1.0  0.39810  0.33160  0.10700  1.0000
  O   O2        1.0  0.60190  0.66840  0.89300  1.0000
  O   O3        1.0  0.52580  0.15120  0.07060  1.0000
  O   O4        1.0  0.47420  0.84880  0.92940  1.0000
  C   C11       1.0  0.62670  0.61440  0.21000  1.0000
  C   C12       1.0  0.37330  0.38560  0.79000  1.0000
  O   O5        1.0  0.68660  0.73530  0.25220  1.0000
  O   O6        1.0  0.31340  0.26470  0.74780  1.0000
  O   O7        1.0  0.46500  0.57080  0.19550  1.0000
  O   O8        1.0  0.53500  0.42920  0.80450  1.0000
  C   C13       1.0  0.14120  0.25200  0.42400  1.0000
  C   C14       1.0  0.85880  0.74800  0.57600  1.0000
  C   C15       1.0  0.15300  0.12950  0.34810  1.0000
  C   C16       1.0  0.84700  0.87050  0.65190  1.0000
  C   C17       1.0  0.00360  0.03380  0.31450  1.0000
  C   C18       1.0  0.99640  0.96620  0.68550  1.0000
  N   N5        1.0  0.01350  0.90930  0.22750  1.0000
  N   N6        1.0  0.98650  0.09070  0.77250  1.0000
  C   C19       1.0  0.84510  0.05530  0.35620  1.0000
  C   C20       1.0  0.15490  0.94470  0.64380  1.0000
  C   C21       1.0  0.83510  0.17650  0.43380  1.0000
  C   C22       1.0  0.16490  0.82350  0.56620  1.0000
  C   C23       1.0  0.98290  0.27530  0.46690  1.0000
  C   C24       1.0  0.01710  0.72470  0.53310  1.0000
  O   O9        1.0  0.28400  0.48120  0.50220  1.0000
  O   O10       1.0  0.71600  0.51880  0.49780  1.0000
  O   O11       1.0  0.44430  0.32230  0.43720  1.0000
  O   O12       1.0  0.55570  0.67770  0.56280  1.0000
  C   C25       1.0  0.29920  0.35970  0.45750  1.0000
  C   C26       1.0  0.70080  0.64030  0.54250  1.0000
  O   O13       1.0  0.19040  0.00970  0.98510  1.0000
  O   O14       1.0  0.80960  0.99030  0.01490  1.0000
  O   O15       1.0  0.36270  0.87090  0.23800  1.0000
  O   O16       1.0  0.63730  0.12910  0.76200  1.0000
  H   H1        1.0  0.15620  0.55040  0.18960  1.0000
  H   H2        1.0  0.84380  0.44960  0.81040  1.0000
  H   H3        1.0  0.08780  0.30500  0.10510  1.0000
  H   H4        1.0  0.91220  0.69500  0.89490  1.0000
  H   H5        1.0  0.43650  0.46410  0.15140  1.0000
  H   H6        1.0  0.56350  0.53590  0.84860  1.0000
  H   H7        1.0  0.26340  0.11200  0.31930  1.0000
  H   H8        1.0  0.73660  0.88800  0.68070  1.0000
  H   H9        1.0  0.92630  0.82590  0.24590  1.0000
  H   H10       1.0  0.07370  0.17410  0.75410  1.0000
  H   H11       1.0  0.12100  0.88530  0.22980  1.0000
  H   H12       1.0  0.87900  0.11470  0.77020  1.0000
  H   H13       1.0  0.98640  0.93360  0.13870  1.0000
  H   H14       1.0  0.01360  0.06640  0.86130  1.0000
  H   H15       1.0  0.74780  0.98100  0.33600  1.0000
  H   H16       1.0  0.25220  0.01900  0.66400  1.0000
  H   H17       1.0  0.72700  0.18940  0.46590  1.0000
  H   H18       1.0  0.27300  0.81060  0.53410  1.0000
  H   H19       1.0  0.97540  0.35050  0.51750  1.0000
  H   H20       1.0  0.02460  0.64950  0.48250  1.0000
  H   H21       1.0  0.54920  0.40440  0.46290  1.0000
  H   H22       1.0  0.45080  0.59560  0.53710  1.0000
  H   H23       1.0  0.29330  0.05990  0.00530  1.0000
  H   H24       1.0  0.70670  0.94010  0.99470  1.0000
  H   H25       1.0  0.22120  0.93610  0.95880  1.0000
  H   H26       1.0  0.77880  0.06390  0.04120  1.0000
  H   H27       1.0  0.42120  0.80760  0.26360  1.0000
  H   H28       1.0  0.57880  0.19240  0.73640  1.0000
  H   H29       1.0  0.41090  0.90360  0.17380  1.0000
  H   H30       1.0  0.58910  0.09640  0.82620  1.0000
